lib/case1354pegase.m
function mpc = case1354pegase
%CASE1354PEGASE  Power flow data for medium part of European system.
%   Please see CASEFORMAT for details on the case file format.
%
%   This case accurately represents the size and complexity of part of the
%   European high voltage transmission network. The network contains 1,354
%   buses, 260 generators, and 1,991 branches and it operates at 380 and
%   220 kV. Please note that the data are fictitious and do not correspond
%   to real world data. They can thus be used to validate methods and tools
%   but should not be used for operation and planning of the European grid.
%
%   The data stems from the Pan European Grid Advanced Simulation and State
%   Estimation (PEGASE) project, part of the 7th Framework Program of the
%   European Union (http://www.fp7-pegase.com/). When publishing results
%   based on this data, please cite:
%
%     C. Josz, S. Fliscounakis, J. Maeght, and P. Panciatici, "AC Power
%     Flow Data in MATPOWER: PEGASE, iTesla, and Rte Snapshots".
%     http://arxiv.org/abs/1603.01533
%
%     S. Fliscounakis, P. Panciatici, F. Capitanescu, and L. Wehenkel,
%     "Contingency ranking with respect to overloads in very large power
%     systems taking into account uncertainty, preventive and corrective
%     actions", Power Systems, IEEE Trans. on, (28)4:4909-4917, 2013.
%     http://dx.doi.org/10.1109/TPWRS.2013.2251015
%
%   Remarks:
%
%   1. Line flow limits are 100 MVA (at 1 p.u. voltage) lower than the
%   current flow limits found in PEGASE data.
%
%   2. PEGASE data contains asymmetric shunt conductance and susceptance in
%   the PI transmission line model of branches. Thus total line charging
%   susceptance of branches is set to 0 p.u. and the nodal representation
%   of shunt condutance and susceptance is used. As a result, power flow
%   equations are left unchanged compared with original PEGASE data.
%   However, line flow constraints in the optimal flow problem are
%   modified.
%
%   3. Identical linear costs are used for all generators to form a loss
%   minimizing OPF objective function.
%
%   4. Since some parts of the network are aggregated, some generators
%   (e.g. with negative PMIN) represent aggregations of multiple loads
%   and generators.
%
%   Contacts:
%     Cédric Josz, Stéphane Fliscounakis, Jean Maeght, Patrick Panciatici
%     firstname.lastname@rte-france.com
%     Réseau de Transport d'Electricité (French Transmission System Operator)
%     Département Expertise Système, Immeuble "Le Colbert"
%     9 rue de la Porte de Buc, 78000 Versailles Cedex, France
%
%   March 18th, 2015

%   MATPOWER
%   Copyright (c) 2015, 2016 by Cédric Josz, Stéphane Fliscounakis, Jean Maeght,
%   and Patrick Panciatici
%   Licensed under the Creative Commons Attribution 4.0 International license,
%   http://creativecommons.org/licenses/by/4.0/
%
%   $Id$

%% MATPOWER Case Format : Version 2
mpc.version = '2';

%%-----  Power Flow Data  -----%%
%% system MVA base
mpc.baseMVA = 100;

%% bus data
%	bus_i	type	Pd	Qd	Gs	Bs	area	Vm	Va	baseKV	zone	Vmax	Vmin
mpc.bus = [
	3	1	151	48.8	0	4.69	0	1.016674	-21.761632	220	5	1.1	0.9;
	4	1	171.41	23.4	0	2.1	0	1.026472	-7.007354	220	5	1.1	0.9;
	10	1	134	24.7	0	12.44	0	1.038534	-24.281644	220	5	1.1	0.9;
	21	1	161.2	39.3	0	30.71	0	1.036195	-21.958828	220	5	1.1	0.9;
	22	1	0	-0	0	0.85	0	1.035058	-18.483339	220	5	1.1	0.9;
	26	1	167.3	54.8	0	110.54	0	1.032267	-3.318448	380	5	1.1	0.9;
	29	1	152.9	49.4	0	27.65	0	0.994409	-13.816418	380	5	1.1	0.9;
	44	1	-0	0	0	7.27	0	1.045829	-22.181066	220	5	1.1	0.9;
	53	1	48.65	16.1	0	7.14	0	1.063422	-9.070013	220	5	1.1	0.9;
	58	1	0	0	0	2.31	0	0.983702	-21.159412	380	5	1.1	0.9;
	59	1	119.2	20.7	0	3.31	0	1.036808	-23.631999	220	5	1.1	0.9;
	90	1	363.25	115.39	0	3.95	0	1.042187	-27.546292	220	5	1.1	0.9;
	96	1	-8.4	28.66	0	3.49	0	1.030441	-15.689479	220	5	1.1	0.9;
	113	1	-0	-0	0	6.532711	0	1.030718	-14.242909	380	5	1.1	0.9;
	115	1	0	-0	0	4.21	0	1.066797	-19.783678	220	5	1.1	0.9;
	118	1	704.53	-35.33	0	13.102834	0	1.020256	-11.430028	380	5	1.1	0.9;
	124	2	0	0	0	0	0	1.081537	8.330657	220	5	1.1	0.9;
	128	1	23.73	12.7	0	0.52	0	1.020482	-16.063366	220	5	1.1	0.9;
	145	1	38.34	5.6	0	7.64	0	1.039096	-8.903623	220	5	1.1	0.9;
	148	1	32.34	12	0	6.1	0	1.041568	-7.991267	220	5	1.1	0.9;
	150	2	0	0	0	0	0	1.062805	2.531831	220	5	1.1	0.9;
	163	1	147.76	32.73	0	8.34	0	1.047047	-10.672351	220	5	1.1	0.9;
	171	1	100.8	13.2	0	5.24	0	1.069649	-25.153324	220	5	1.1	0.9;
	174	1	370.5	-17	0	9.91	0	1.074846	-27.942789	220	5	1.1	0.9;
	184	1	-0	-0	0	2.42	0	1.042771	-11.94851	220	5	1.1	0.9;
	188	1	36.84	13.9	0	3.3	0	1.018752	-19.550413	220	5	1.1	0.9;
	195	1	73.14	21.55	0	8.52	0	1.056337	-8.791116	220	5	1.1	0.9;
	196	1	0	-0	0	12.48	0	1.074825	-26.319857	220	5	1.1	0.9;
	198	1	39.74	11.8	0	1.44	0	1.01673	-16.306681	220	5	1.1	0.9;
	207	1	321.98	84.4	0	1.34	0	1.026604	-13.457588	220	5	1.1	0.9;
	216	1	155.6	54.7	0	2.21	0	1.039362	-24.590496	220	5	1.1	0.9;
	217	1	105.2	0.1	0	7.36	0	1.042762	-2.603638	220	5	1.1	0.9;
	218	1	69.83	15.12	0	2.23	0	1.045923	-13.114892	220	5	1.1	0.9;
	221	2	0	0	0	0	0	0.984682	-21.807603	380	5	1.1	0.9;
	225	1	0	0	0	1.15	0	1.063761	-20.174043	220	5	1.1	0.9;
	280	1	119.6	29.6	0	5.34	0	1.035725	-11.193679	220	5	1.1	0.9;
	283	1	27.33	11.9	0	1.17	0	1.035204	-12.094637	220	5	1.1	0.9;
	292	1	13.82	1.4	0	0.7	0	1.047544	-14.765137	220	5	1.1	0.9;
	305	1	103	12	0	0.63	0	1.067188	-32.434719	220	5	1.1	0.9;
	306	1	-0	0	0	4.76	0	1.030032	-18.823594	220	5	1.1	0.9;
	314	1	163.1	46.3	0	10.6	0	1.005548	-16.020947	220	5	1.1	0.9;
	333	1	524.5	43	0	6.85	0	1.014579	-42.137692	220	5	1.1	0.9;
	338	2	0	0	0	0	0	1.048249	-6.162533	220	5	1.1	0.9;
	346	1	197.5	48.3	0	0.71	0	1.040694	-21.298393	220	5	1.1	0.9;
	350	1	110.4	26.2	0	5.62	0	1.043185	-24.295117	220	5	1.1	0.9;
	352	2	0	0	0	0	0	1.055378	0.262953	380	5	1.1	0.9;
	367	1	65.17	-51.5	0	4.85	0	1.07164	-23.599251	220	5	1.1	0.9;
	401	1	56.5	36.29	0	3.08	0	1.026548	-14.262083	220	5	1.1	0.9;
	408	1	129.1	7.4	0	0.04	0	1.039791	-11.549917	220	5	1.1	0.9;
	410	1	170.89	50.38	0	6.44	0	1.041564	-26.439994	220	5	1.1	0.9;
	413	2	0	0	0	0	0	1.05013	-6.606455	220	5	1.1	0.9;
	416	1	70.68	13.5	0	6.96	0	1.0458	-6.728632	220	5	1.1	0.9;
	426	1	123.1	6.5	0	3.25	0	1.040489	-18.395441	220	5	1.1	0.9;
	432	1	-0	-0	0	68.517663	0	1.047774	2.403578	380	5	1.1	0.9;
	444	1	0	-0	0	2.45	0	1.036267	-12.201434	220	5	1.1	0.9;
	449	1	0	0	0	29.42	0	1.021739	-8.489958	380	5	1.1	0.9;
	453	2	0	0	0	0	0	1.018914	-7.857046	380	5	1.1	0.9;
	455	1	274.32	5.66	0	13.24	0	1.045882	-30.596498	220	5	1.1	0.9;
	490	1	20.52	4	0	2.77	0	1.036451	-23.014287	220	5	1.1	0.9;
	500	1	144.4	35.5	0	7.66	0	1.040423	-15.042452	220	5	1.1	0.9;
	502	1	-0	0	0	1.96	0	1.043564	-6.675538	220	5	1.1	0.9;
	506	1	-0	0	0	0.4	0	1.063297	-9.078728	380	5	1.1	0.9;
	513	1	57.46	17.1	0	1.61	0	1.038461	-7.443414	220	5	1.1	0.9;
	516	2	0	0	0	0	0	1.075592	-33.453515	220	5	1.1	0.9;
	520	1	118.5	20.4	0	2.57	0	1.048239	-27.108761	220	5	1.1	0.9;
	549	1	0	-0	0	5.15	0	1.074517	-10.959606	220	5	1.1	0.9;
	554	1	0	-0	0	1.97	0	1.024071	-20.793083	220	5	1.1	0.9;
	556	1	16.52	9	0	1.17	0	1.03694	-22.762979	220	5	1.1	0.9;
	561	1	0	-0	0	0.32	0	1.055451	-11.021763	220	5	1.1	0.9;
	564	2	0	0	0	0	0	1.069817	-47.078276	220	5	1.1	0.9;
	575	1	0	-0	0	0.67	0	1.04436	-11.163788	220	5	1.1	0.9;
	583	2	0	0	0	0	0	1.045397	-15.568574	220	5	1.1	0.9;
	594	1	67.57	17	0	5.75	0	1.036683	-8.869667	220	5	1.1	0.9;
	601	1	140.6	42.6	0	5.71	0	1.040685	-14.418335	220	5	1.1	0.9;
	604	1	33.24	4.4	0	24.54	0	0.996939	-12.93567	380	5	1.1	0.9;
	608	1	150.9	10.4	0	4.77	0	1.071753	-32.66829	220	5	1.1	0.9;
	609	1	-0	-0	0	5.67	0	1.025344	-14.779536	220	5	1.1	0.9;
	615	2	0	0	0	0	0	1.063876	-10.607341	220	5	1.1	0.9;
	616	2	0	0	0	0	0	1.048713	-12.997468	220	5	1.1	0.9;
	619	1	72.88	14.4	0	2.96	0	1.046742	-25.252227	220	5	1.1	0.9;
	639	2	0	0	0	0	0	1.051376	-29.999643	220	5	1.1	0.9;
	641	1	45.32	18.5	0	0.74	0	1.03515	-13.956622	220	5	1.1	0.9;
	658	1	258.4	66.7	0	5.87	0	1.033849	-17.442414	220	5	1.1	0.9;
	661	1	-0	-0	0	0.6	0	1.040021	2.414523	380	5	1.1	0.9;
	666	1	-5.61	-2.79	0	150.93	0	1.03076	-5.413919	380	5	1.1	0.9;
	678	1	232.1	89.8	0	0.09	0	0.986375	-18.62447	220	5	1.1	0.9;
	682	2	0	0	0	0	0	1.0691	-10.045044	220	5	1.1	0.9;
	687	1	-0	0	0	5.6	0	1.05742	-4.068613	220	5	1.1	0.9;
	707	1	83.99	21.2	0	5.36	0	1.054495	-25.620212	220	5	1.1	0.9;
	718	1	135.11	41	0	5.31	0	1.031148	-24.884639	220	5	1.1	0.9;
	720	1	-0	-0	0	23.554121	0	0.981824	-26.763103	380	5	1.1	0.9;
	726	1	400.3	189.9	0	0.53	0	1.048069	-4.933448	220	5	1.1	0.9;
	742	1	0	-0	0	2.83	0	1.05759	-4.070122	220	5	1.1	0.9;
	747	1	69.58	16	0	3.03	0	1.073922	-26.380554	220	5	1.1	0.9;
	749	2	0	0	0	0	0	1.057884	-28.950791	220	5	1.1	0.9;
	750	1	-0	-0	0	18.63	0	1.041141	-24.444747	220	5	1.1	0.9;
	757	2	0	0	0	0	0	1.017567	-13.765564	380	5	1.1	0.9;
	766	1	-0	0	0	7.85	0	1.047952	-19.8489	220	5	1.1	0.9;
	769	1	152.57	40	0	6.12	0	1.024104	-10.886119	220	5	1.1	0.9;
	772	1	343.9	141.9	0	5.55	0	1.034361	-14.167643	220	5	1.1	0.9;
	776	2	0	0	0	0	0	1.026368	-13.331099	220	5	1.1	0.9;
	778	2	0	0	0	0	0	1.049411	-6.680953	220	5	1.1	0.9;
	789	1	-0	-0	0	6.63	0	1.051689	-5.954643	220	5	1.1	0.9;
	795	2	0	0	0	0	0	1.035522	-15.484388	220	5	1.1	0.9;
	800	1	50.56	18	0	0.11	0	1.034778	-12.128589	220	5	1.1	0.9;
	803	2	0	0	0	0	0	1.041369	-24.768342	220	5	1.1	0.9;
	804	1	-0	-0	0	7.26	0	1.05585	-7.563603	220	5	1.1	0.9;
	805	1	124.5	29.6	0	15.4	0	1.05673	-11.12828	220	5	1.1	0.9;
	809	1	0	-0	0	58.088687	0	1.027525	-0.064839	380	5	1.1	0.9;
	819	1	0	-0	0	0.22	0	1.052169	-0.720463	220	5	1.1	0.9;
	823	2	0	0	0	0	0	1.044097	-2.229251	380	5	1.1	0.9;
	839	1	-0	-0	0	8.17514	0	1.024385	-1.386321	380	5	1.1	0.9;
	851	2	0	0	0	0	0	1.00025	-17.401395	220	5	1.1	0.9;
	858	2	0	0	0	0	0	1.031745	1.110134	380	5	1.1	0.9;
	870	1	110	3.4	0	11.95	0	1.040762	-24.602002	220	5	1.1	0.9;
	871	1	108.89	-21.76	0	3.72	0	1.056945	-11.955754	220	5	1.1	0.9;
	883	1	192.5	78.3	0	6.65	0	1.017176	-10.133417	220	5	1.1	0.9;
	891	2	0	0	0	0	0	1.064525	-18.97841	380	5	1.1	0.9;
	892	1	-0	-0	0	9.1	0	1.069234	-34.99461	220	5	1.1	0.9;
	900	1	0	0	0	0.15	0	1.050278	-15.385577	220	5	1.1	0.9;
	903	1	82.69	20.1	0	1.36	0	1.073885	-26.405705	220	5	1.1	0.9;
	905	1	631.71	-54.16	0	7.534129	0	1.035643	-15.075813	380	5	1.1	0.9;
	907	1	-0	-0	0	0.05	0	1.038555	-9.767436	220	5	1.1	0.9;
	908	1	125.9	-0.5	0	0.21	0	1.065214	-7.929625	220	5	1.1	0.9;
	920	1	34.44	8.5	0	1.11	0	1.045537	-20.769903	220	5	1.1	0.9;
	923	1	62.07	14.7	0	4.84	0	1.035596	-23.090183	220	5	1.1	0.9;
	933	1	-0	0	0	22.75	0	1.019946	-21.525393	220	5	1.1	0.9;
	935	1	-0	0	0	9.46	0	1.049182	-24.470238	220	5	1.1	0.9;
	953	1	108.7	-12.15	0	37.11	0	1.065973	-13.014498	380	5	1.1	0.9;
	954	1	66.27	13.6	0	0.67	0	1.044324	-21.525875	220	5	1.1	0.9;
	960	1	-0	-0	0	108.728602	0	1.063295	-9.078724	380	5	1.1	0.9;
	964	1	88.5	16.5	0	146.44	0	1.015553	-11.659761	380	5	1.1	0.9;
	972	2	0	0	0	0	0	1.072621	5.35893	380	5	1.3	0.7;
	980	1	14.71	4.6	0	7.88	0	1.047164	-25.138433	220	5	1.1	0.9;
	1001	2	0	0	0	0	0	1.074143	-33.62199	220	5	1.1	0.9;
	1002	2	0	0	0	0	0	1.041506	-20.086455	220	5	1.1	0.9;
	1005	1	0	0	0	0.81	0	1.053955	-12.379476	220	5	1.1	0.9;
	1015	1	44.55	0	0	4.78	0	1.056277	-5.398682	220	5	1.1	0.9;
	1026	1	201.4	53	0	9.67	0	1.028182	-29.352232	220	5	1.1	0.9;
	1027	1	-5.91	-2.33	0	30.393595	0	0.990542	-18.181223	380	5	1.1	0.9;
	1033	1	26.33	5.3	0	4.31	0	1.040934	-24.521854	220	5	1.1	0.9;
	1035	1	382.5	57.9	0	8.16	0	1.067815	-32.322562	220	5	1.1	0.9;
	1039	1	34.64	-0	0	0.91	0	1.034441	-19.543294	220	5	1.1	0.9;
	1040	1	31.94	8.8	0	3.79	0	1.038913	-9.027471	220	5	1.1	0.9;
	1043	2	0	0	0	0	0	1.028946	-3.693426	380	5	1.1	0.9;
	1051	1	-0	0	0	3.79	0	1.041627	-12.829065	220	5	1.1	0.9;
	1077	1	-0	0	0	0.1	0	1.035206	-12.094658	220	5	1.1	0.9;
	1078	1	-0	-0	0	4.74	0	1.061509	-3.472987	220	5	1.1	0.9;
	1081	1	277.86	58.95	0	182.880644	0	1.038644	-10.509999	380	5	1.1	0.9;
	1083	2	0	0	0	0	0	1.049472	-8.613737	220	5	1.1	0.9;
	1090	1	56.06	18.7	0	4.24	0	1.0101	-21.692579	220	5	1.1	0.9;
	1093	2	0	0	0	0	0	1.027056	-8.507308	380	5	1.1	0.9;
	1096	1	0	-0	0	0.16	0	1.050189	-1.116839	220	5	1.1	0.9;
	1100	2	0	0	0	0	0	1.042801	-4.348181	220	5	1.1	0.9;
	1101	1	-0	-0	0	2.05	0	1.033508	-14.209132	220	5	1.1	0.9;
	1102	2	0	0	0	0	0	1.049879	-6.64195	220	5	1.1	0.9;
	1105	1	29.83	7.3	0	6.49	0	1.074759	-26.325932	220	5	1.1	0.9;
	1111	1	0	0	0	1.1	0	1.036823	-8.871578	220	5	1.1	0.9;
	1129	1	190.47	55.03	0	6.7	0	1.003325	-22.532961	220	5	1.1	0.9;
	1136	1	16.22	2	0	0.71	0	1.034786	-18.539009	220	5	1.1	0.9;
	1137	1	-0	-0	0	0.05	0	1.048666	-24.42816	220	5	1.1	0.9;
	1146	1	32.84	-0	0	1.41	0	1.032638	-5.627486	220	5	1.1	0.9;
	1151	1	-0	-0	0	18.82	0	1.043354	-20.606997	220	5	1.1	0.9;
	1153	1	12.41	3.9	0	2.23	0	1.034654	-6.058841	220	5	1.1	0.9;
	1156	1	65.67	24	0	9.95	0	1.038055	-22.501868	220	5	1.1	0.9;
	1159	1	112.4	13	0	3.99	0	1.052615	-36.244174	220	5	1.1	0.9;
	1172	1	-0	-0	0	2.3	0	1.074468	-25.55724	220	5	1.1	0.9;
	1179	1	86.6	23.4	0	0.39	0	1.040896	-2.802576	220	5	1.1	0.9;
	1183	1	199.4	-19.9	0	6.68	0	1.066643	-33.081849	220	5	1.1	0.9;
	1187	1	67.57	21.2	0	5.71	0	1.039857	-4.955282	220	5	1.1	0.9;
	1188	1	30.93	6.6	0	9.09	0	1.054495	-14.222981	220	5	1.1	0.9;
	1194	1	129.6	13.3	0	13.98	0	1.03896	-15.127161	380	5	1.1	0.9;
	1198	1	0	0	0	30.637696	0	0.987964	-14.637206	380	5	1.1	0.9;
	1201	1	114.1	23.5	0	1.08	0	1.050304	-19.627666	220	5	1.1	0.9;
	1216	1	0	0	0	4.93	0	1.040626	-10.966354	220	5	1.1	0.9;
	1233	1	0	-0	0	1.72	0	1.037981	-22.526704	220	5	1.1	0.9;
	1234	1	71.78	17.9	0	1.96	0	1.022628	-16.524518	220	5	1.1	0.9;
	1237	2	0	0	0	0	0	1.108028	-6.285992	380	5	1.3	0.7;
	1248	1	0	0	0	1.17	0	1.047205	-10.673893	220	5	1.1	0.9;
	1249	1	348.93	26.47	0	9.36	0	1.019402	-11.26449	380	5	1.1	0.9;
	1251	2	0	0	0	0	0	1.027102	-8.516785	380	5	1.1	0.9;
	1262	1	-0	0	0	10.73	0	1.038607	-22.034538	220	5	1.1	0.9;
	1265	1	173	-21.3	0	5.93	0	1.066705	-50.057306	220	5	1.1	0.9;
	1275	1	52.46	2.9	0	0.35	0	1.032647	-18.856368	220	5	1.1	0.9;
	1295	2	0	0	0	0	0	1.03682	-8.643487	220	5	1.1	0.9;
	1301	1	479	99.2	0	10.68	0	1.05167	-28.720012	220	5	1.1	0.9;
	1305	1	-0	-0	0	4.34	0	1.038253	-22.269637	220	5	1.1	0.9;
	1311	1	37.94	15.2	0	35.31	0	1.033986	-21.654604	380	5	1.1	0.9;
	1326	1	0	0	0	0.98	0	1.069384	-34.995605	220	5	1.1	0.9;
	1334	1	0	0	0	0.59	0	1.025188	-16.314102	220	5	1.1	0.9;
	1341	2	0	0	0	0	0	1.032899	-14.204982	220	5	1.1	0.9;
	1343	1	-0	-0	0	58.3	0	0.996377	-14.200565	380	5	1.1	0.9;
	1354	2	0	0	0	0	0	1.041045	-7.375163	220	5	1.1	0.9;
	1355	1	-3.29	-1.32	0	190.704588	0	1.0328	-8.554156	380	5	1.1	0.9;
	1364	1	40.85	14.5	0	0.59	0	1.039851	-12.092524	220	5	1.1	0.9;
	1380	1	145.2	21.4	0	1.09	0	1.033661	-22.574327	220	5	1.1	0.9;
	1394	1	30.93	7.6	0	4.69	0	1.074659	-26.314245	220	5	1.1	0.9;
	1397	1	0	-0	0	2.14	0	1.037924	-12.820941	220	5	1.1	0.9;
	1398	1	196.7	44.2	0	0.1	0	1.017322	-19.003234	220	5	1.1	0.9;
	1401	1	11.91	2.9	0	5.27	0	1.038647	-14.758146	220	5	1.1	0.9;
...
];

%% generator data
%	bus	Pg	Qg	Qmax	Qmin	Vg	mBase	status	Pmax	Pmin	Pc1	Pc2	Qc1min	Qc1max	Qc2min	Qc2max	ramp_agc	ramp_10	ramp_30	ramp_q	apf
mpc.gen = [
	124	861.3	56.53	440.32	-172.59	1.081537	100	1	1000	333.33	0	0	0	0	0	0	0	0	0	0	0;
	150	67.29	-7.99	77.09	-22.54	1.062805	100	1	160	0	0	0	0	0	0	0	0	0	0	0	0;
	221	-155.39	97.68	183.92	-65.3	0.984682	100	1	100	-207.18	0	0	0	0	0	0	0	0	0	0	0;
	338	83.7	2.5	55.54	-19.16	1.048249	100	1	120	0	0	0	0	0	0	0	0	0	0	0	0;
	352	1250.4	278.94	926.35	-297.68	1.055378	100	1	2000	666.67	0	0	0	0	0	0	0	0	0	0	0;
	413	231	19.11	124.12	-49.84	1.05013	100	1	280	0	0	0	0	0	0	0	0	0	0	0	0;
	453	260.1	57.98	257.23	-74.4	1.018914	100	1	540	0	0	0	0	0	0	0	0	0	0	0	0;
	516	539.4	190.43	261.79	-106.67	1.075592	100	1	600	200	0	0	0	0	0	0	0	0	0	0	0;
	564	-51.67	-3.31	18.47	-19.35	1.069817	100	1	100	-68.89	0	0	0	0	0	0	0	0	0	0	0;
	583	-270	3.65	17.88	-7.03	1.045397	100	1	100	-360	0	0	0	0	0	0	0	0	0	0	0;
	615	38.2	-0.39	17.09	-7.79	1.063876	100	1	40	0	0	0	0	0	0	0	0	0	0	0	0;
	616	379.2	37.76	217.9	-81.16	1.048713	100	1	480	160	0	0	0	0	0	0	0	0	0	0	0;
	639	-46.2	112.55	135.52	-38.9	1.051376	100	1	100	-61.6	0	0	0	0	0	0	0	0	0	0	0;
	682	37.4	8.53	38.77	-11.06	1.0691	100	1	80	0	0	0	0	0	0	0	0	0	0	0	0;
	749	198.88	-11.17	105.69	-43.84	1.057884	100	1	240	0	0	0	0	0	0	0	0	0	0	0	0;
	757	116.7	13.66	51.3	-23.41	1.017567	100	1	120	0	0	0	0	0	0	0	0	0	0	0	0;
	776	-111.4	3.36	18.16	-6.73	1.026368	100	1	100	-148.53	0	0	0	0	0	0	0	0	0	0	0;
	778	16.5	-0.67	12.37	-9.36	1.049411	100	1	33.58	0	0	0	0	0	0	0	0	0	0	0	0;
	795	58.4	7.75	36.75	-13.04	1.035522	100	1	80	0	0	0	0	0	0	0	0	0	0	0	0;
	803	-89.2	-1.52	74.03	-25.54	1.041369	100	1	100	-118.93	0	0	0	0	0	0	0	0	0	0	0;
	823	1274.2	289.74	926.68	-298.31	1.044097	100	1	2000	666.67	0	0	0	0	0	0	0	0	0	0	0;
	851	59.56	50.82	96.64	-27.81	1.00025	100	1	200	0	0	0	0	0	0	0	0	0	0	0	0;
	858	855.6	147.86	440.67	-172.15	1.031745	100	1	1000	333.33	0	0	0	0	0	0	0	0	0	0	0;
	891	1702.8	651.53	1097.41	-373.91	1.064525	100	1	2400	800	0	0	0	0	0	0	0	0	0	0	0;
	972	1221.2	393.14	934.73	-291.52	1.072621	100	1	2000	666.67	0	0	0	0	0	0	0	0	0	0	0;
	1001	92.1	25.97	55.02	-19.81	1.074143	100	1	120	0	0	0	0	0	0	0	0	0	0	0	0;
	1002	171	10.89	89.55	-35.15	1.041506	100	1	200	0	0	0	0	0	0	0	0	0	0	0	0;
	1043	829.5	49	387.88	-163.4	1.028946	100	1	900	300	0	0	0	0	0	0	0	0	0	0	0;
	1083	91.8	9.85	54.91	-19.88	1.049472	100	1	120	0	0	0	0	0	0	0	0	0	0	0	0;
	1093	837	83.03	550.69	-185.15	1.027056	100	1	1200	400	0	0	0	0	0	0	0	0	0	0	0;
	1100	58.2	5.6	36.8	-13.01	1.042801	100	1	80	0	0	0	0	0	0	0	0	0	0	0	0;
	1102	-124.15	7.32	38.05	-11.59	1.049879	100	1	100	-165.54	0	0	0	0	0	0	0	0	0	0	0;
	1237	1504.8	364.78	906.61	-319.44	1.108028	100	1	2000	666.67	0	0	0	0	0	0	0	0	0	0	0;
	1251	837	77.94	550.69	-185.15	1.027102	100	1	1200	400	0	0	0	0	0	0	0	0	0	0	0;
	1295	-124.1	4.52	36.92	-12.88	1.03682	100	1	100	-165.47	0	0	0	0	0	0	0	0	0	0	0;
	1341	67.2	29.74	57.03	-17.62	1.032899	100	1	120	0	0	0	0	0	0	0	0	0	0	0	0;
	1354	-246.5	13.72	38.08	-11.73	1.041045	100	1	100	-328.67	0	0	0	0	0	0	0	0	0	0	0;
	1422	-101	2.33	18.09	-6.79	1.04353	100	1	100	-134.67	0	0	0	0	0	0	0	0	0	0	0;
	1436	49.4	2.95	37.72	-12.09	1.047684	100	1	80	0	0	0	0	0	0	0	0	0	0	0	0;
	1478	62.6	7.49	36.4	-13.44	1.048068	100	1	80	0	0	0	0	0	0	0	0	0	0	0	0;
	1604	50.6	13.86	37.66	-12.17	1.043862	100	1	80	0	0	0	0	0	0	0	0	0	0	0	0;
	1642	50.4	11.76	37.74	-12.11	1.028554	100	1	80	0	0	0	0	0	0	0	0	0	0	0	0;
	1680	1250.4	274.36	928.89	-296.1	1.04395	100	1	2000	666.67	0	0	0	0	0	0	0	0	0	0	0;
	1708	860.8	121.94	439.37	-173.3	1.037938	100	1	1000	333.33	0	0	0	0	0	0	0	0	0	0	0;
	1721	28.1	1.73	18.52	-6.39	1.062238	100	1	40	0	0	0	0	0	0	0	0	0	0	0	0;
	1754	40	3.62	16.99	-7.92	1.04286	100	1	41.06	0	0	0	0	0	0	0	0	0	0	0	0;
	1794	1250.4	253.94	926.35	-297.68	1.05295	100	1	2000	666.67	0	0	0	0	0	0	0	0	0	0	0;
	1808	-0.6	-13.17	111.23	-38.16	1.046224	100	1	100	-0.8	0	0	0	0	0	0	0	0	0	0	0;
	1851	15.6	-1.26	11.76	-8.89	1.04762	100	1	31.92	0	0	0	0	0	0	0	0	0	0	0	0;
	1852	-241.8	10.63	58.16	-16.52	1.054325	100	1	100	-322.4	0	0	0	0	0	0	0	0	0	0	0;
	1888	573.68	42.43	396.02	-155.83	1.039377	100	1	912.78	312.78	0	0	0	0	0	0	0	0	0	0	0;
	1914	115.5	-45.22	160.36	-150.95	1.035636	100	1	472.16	39.35	0	0	0	0	0	0	0	0	0	0	0;
	1959	31	0.56	18.14	-6.75	1.064692	100	1	40	0	0	0	0	0	0	0	0	0	0	0	0;
	2035	855.6	149.85	441.85	-171.27	1.03088	100	1	1000	333.33	0	0	0	0	0	0	0	0	0	0	0;
	2050	836.2	-16.43	962.2	-263.65	1.009914	100	1	2000	666.67	0	0	0	0	0	0	0	0	0	0	0;
	2085	176	31.77	88.39	-36.19	1.040351	100	1	200	0	0	0	0	0	0	0	0	0	0	0	0;
	2177	-121.3	13.33	58.35	-16.26	1.07333	100	1	100	-161.73	0	0	0	0	0	0	0	0	0	0	0;
	2197	-53.29	-1.42	19.51	-14.74	1.035528	100	1	100	-71.05	0	0	0	0	0	0	0	0	0	0	0;
	2276	38.9	-22.64	41.67	-36.5	1.05324	100	1	119.3	0	0	0	0	0	0	0	0	0	0	0	0;
	2291	110.5	13.69	95.69	-28.93	1.072528	100	1	200	0	0	0	0	0	0	0	0	0	0	0	0;
	2359	78.2	7.2	34.35	-15.5	1.024884	100	1	80	0	0	0	0	0	0	0	0	0	0	0	0;
	2421	-320.4	4.66	37.39	-12.45	1.047766	100	1	100	-427.2	0	0	0	0	0	0	0	0	0	0	0;
	2425	-100.5	5.31	54.3	-20.49	1.041186	100	1	100	-134	0	0	0	0	0	0	0	0	0	0	0;
	2426	-43.2	-30.65	105.34	-99.02	1.037687	100	1	100	-57.6	0	0	0	0	0	0	0	0	0	0	0;
	2446	1367	286.48	921.62	-304.73	1.06157	100	1	2000	666.67	0	0	0	0	0	0	0	0	0	0	0;
	2468	46.8	5.15	38.02	-11.81	1.048132	100	1	80	0	0	0	0	0	0	0	0	0	0	0	0;
	2481	31.8	11.5	39.12	-10.71	1.042777	100	1	80	0	0	0	0	0	0	0	0	0	0	0	0;
	2489	286.5	-15.8	162.4	-61.79	1.049366	100	1	360	0	0	0	0	0	0	0	0	0	0	0	0;
	2550	54.3	4.31	58.23	-16.49	1.049384	100	1	120	0	0	0	0	0	0	0	0	0	0	0	0;
	2600	76.48	16.9	76.08	-23.59	1.038821	100	1	160	0	0	0	0	0	0	0	0	0	0	0	0;
	2627	1367	302.84	921.52	-304.79	1.061488	100	1	2000	666.67	0	0	0	0	0	0	0	0	0	0	0;
	2653	41.92	3.94	51.94	-22.8	1.036517	100	1	120	0	0	0	0	0	0	0	0	0	0	0	0;
	2719	77.6	-15.35	70.15	-58.1	1.035384	100	1	196.72	0	0	0	0	0	0	0	0	0	0	0	0;
	2786	1221.2	372.42	934.81	-291.47	1.073795	100	1	2000	666.67	0	0	0	0	0	0	0	0	0	0	0;
	2797	-95.1	-11.62	88.33	-36.33	1.042226	100	1	100	-126.8	0	0	0	0	0	0	0	0	0	0	0;
	2799	66.8	-1.21	77.91	-21.66	1.05396	100	1	160	0	0	0	0	0	0	0	0	0	0	0	0;
	2816	1250.4	270.9	926.26	-297.74	1.053944	100	1	2000	666.67	0	0	0	0	0	0	0	0	0	0	0;
	2841	80.7	-3.29	55.98	-18.76	1.08248	100	1	120	0	0	0	0	0	0	0	0	0	0	0	0;
	2842	31.6	5.75	18.19	-6.74	1.043712	100	1	40	0	0	0	0	0	0	0	0	0	0	0	0;
	2872	4.5	0.33	3.31	-2.54	1.063841	100	1	9.05	0	0	0	0	0	0	0	0	0	0	0	0;
	2878	8.95	-11.72	72.95	-68.71	1.057626	100	1	214.86	0	0	0	0	0	0	0	0	0	0	0	0;
	2886	60.9	10.71	57.69	-17.02	1.055151	100	1	120	0	0	0	0	0	0	0	0	0	0	0	0;
	2902	20.9	1.11	19.19	-5.72	1.059072	100	1	40	0	0	0	0	0	0	0	0	0	0	0	0;
	2930	53.2	2.49	37.24	-12.54	1.047695	100	1	80	0	0	0	0	0	0	0	0	0	0	0	0;
	2934	3.4	-0.16	2.51	-1.91	1.051149	100	1	6.83	0	0	0	0	0	0	0	0	0	0	0	0;
	2985	46.6	-69.84	184.46	-132.67	1.053607	100	1	493.35	0	0	0	0	0	0	0	0	0	0	0	0;
	3018	162.5	-4.77	89.61	-34.82	1.041705	100	1	200	0	0	0	0	0	0	0	0	0	0	0	0;
	3028	855.7	146.13	441.85	-171.27	1.030654	100	1	1000	333.33	0	0	0	0	0	0	0	0	0	0	0;
	3114	38.6	4.12	17.33	-7.61	1.071964	100	1	40	0	0	0	0	0	0	0	0	0	0	0	0;
	3133	85.54	0.39	113.97	-35.56	1.065372	100	1	240	0	0	0	0	0	0	0	0	0	0	0	0;
	3134	-136.3	-11.71	70.25	-29.33	1.023117	100	1	100	-181.73	0	0	0	0	0	0	0	0	0	0	0;
	3183	98.7	-3.57	53.7	-20.98	1.055515	100	1	120	0	0	0	0	0	0	0	0	0	0	0	0;
	3205	416.7	119.72	243.61	-88.46	1.041982	100	1	540	0	0	0	0	0	0	0	0	0	0	0	0;
	3218	-107.4	4.44	36.79	-13	1.028507	100	1	100	-143.2	0	0	0	0	0	0	0	0	0	0	0;
	3240	-42.3	-25.61	62.23	-51.37	1.050305	100	1	100	-56.4	0	0	0	0	0	0	0	0	0	0	0;
	3306	861.3	143.67	439.2	-173.43	1.071978	100	1	1000	333.33	0	0	0	0	0	0	0	0	0	0	0;
	3324	-26.48	12.72	38.13	-11.64	1.014126	100	1	100	-35.3	0	0	0	0	0	0	0	0	0	0	0;
	3346	56.8	11.49	37.1	-12.76	1.01594	100	1	80	0	0	0	0	0	0	0	0	0	0	0	0;
	3353	19.07	5.42	38.2	-11.61	1.045739	100	1	80	0	0	0	0	0	0	0	0	0	0	0	0;
	3364	44.5	-21.96	47.19	-41.44	1.0538	100	1	135.27	0	0	0	0	0	0	0	0	0	0	0	0;
	3390	2.4	12.68	54.59	-20.19	1.039984	100	1	120	0	0	0	0	0	0	0	0	0	0	0	0;
	3422	53.7	-3.24	58.19	-16.5	1.063657	100	1	120	0	0	0	0	0	0	0	0	0	0	0	0;
	3436	521	217.43	550.97	-184.89	1.060777	100	1	1200	400	0	0	0	0	0	0	0	0	0	0	0;
	3492	-370.8	2.02	53.75	-21.08	1.04852	100	1	100	-494.4	0	0	0	0	0	0	0	0	0	0	0;
	3513	829.8	51	387.88	-163.4	1.028771	100	1	900	300	0	0	0	0	0	0	0	0	0	0	0;
	3565	15.88	2.27	38.83	-10.97	1.081614	100	1	80	0	0	0	0	0	0	0	0	0	0	0	0;
	3580	539	189.12	261.7	-107.36	1.07602	100	1	600	0	0	0	0	0	0	0	0	0	0	0	0;
	3611	-125.4	3.51	54.59	-20.12	1.03905	100	1	100	-167.2	0	0	0	0	0	0	0	0	0	0	0;
	3656	-26.2	12.26	116.07	-33.32	1.070983	100	1	100	-34.93	0	0	0	0	0	0	0	0	0	0	0;
	3661	861.2	118.75	441.04	-172.05	1.059676	100	1	1000	333.33	0	0	0	0	0	0	0	0	0	0	0;
	3698	-12.58	3.09	36.34	-13.47	1.041813	100	1	100	-16.78	0	0	0	0	0	0	0	0	0	0	0;
	3741	854.7	190.06	548.57	-187.16	1.031629	100	1	1200	400	0	0	0	0	0	0	0	0	0	0	0;
	3809	257	122.15	313.01	-116.73	1.084785	100	1	700	233.33	0	0	0	0	0	0	0	0	0	0	0;
	3825	837.3	54.8	388.17	-163.4	1.026994	100	1	900	300	0	0	0	0	0	0	0	0	0	0	0;
	3869	855.6	148.23	440.69	-172.14	1.031907	100	1	1000	333.33	0	0	0	0	0	0	0	0	0	0	0;
	3876	-25.1	6.45	34.27	-15.52	1.044501	100	1	100	-33.47	0	0	0	0	0	0	0	0	0	0	0;
	3916	-21.27	11.22	38.02	-11.77	1.043758	100	1	100	-28.37	0	0	0	0	0	0	0	0	0	0	0;
	3951	-27.1	-74.05	126.16	-127.56	1.027439	100	1	100	-36.13	0	0	0	0	0	0	0	0	0	0	0;
	3971	-134.5	9.64	55.67	-19.09	1.063145	100	1	100	-179.33	0	0	0	0	0	0	0	0	0	0	0;
	4024	89.5	40.38	97.07	-27.44	1.040328	100	1	200	0	0	0	0	0	0	0	0	0	0	0	0;
	4056	-76.9	3.73	38.05	-11.77	1.038526	100	1	100	-102.53	0	0	0	0	0	0	0	0	0	0	0;
	4084	366.1	46.44	264.94	-103.74	1.063234	100	1	600	0	0	0	0	0	0	0	0	0	0	0	0;
	4118	41	5.09	38.37	-11.4	1.027195	100	1	80	0	0	0	0	0	0	0	0	0	0	0	0;
	4125	59.6	16.3	36.89	-13	1.003502	100	1	80	0	0	0	0	0	0	0	0	0	0	0	0;
	4128	67.5	24.27	57.03	-17.63	1.019761	100	1	120	0	0	0	0	0	0	0	0	0	0	0	0;
	4231	2641.24	771.6	99999	-99999	1.049182	100	1	4188.95	1333.33	0	0	0	0	0	0	0	0	0	0	0;
	4331	60.2	6.92	36.73	-13.12	1.028646	100	1	80	0	0	0	0	0	0	0	0	0	0	0	0;
	4395	-129.1	6.73	38.48	-11.33	1.039834	100	1	100	-172.13	0	0	0	0	0	0	0	0	0	0	0;
	4419	861.3	121.55	441.04	-172.05	1.059565	100	1	1000	333.33	0	0	0	0	0	0	0	0	0	0	0;
	4480	861.3	143.79	439.2	-173.43	1.071852	100	1	1000	333.33	0	0	0	0	0	0	0	0	0	0	0;
	4482	35.2	13.53	38.85	-10.95	1.049914	100	1	80	0	0	0	0	0	0	0	0	0	0	0	0;
	4506	-171.8	12.84	37.86	-11.95	1.036047	100	1	100	-229.07	0	0	0	0	0	0	0	0	0	0	0;
	4566	-30.39	6.81	37.94	-11.87	1.073282	100	1	100	-40.51	0	0	0	0	0	0	0	0	0	0	0;
	4624	68	8.25	35.62	-14.19	1.042135	100	1	80	0	0	0	0	0	0	0	0	0	0	0	0;
	4661	-78.9	2.19	19.14	-5.77	1.049813	100	1	100	-105.2	0	0	0	0	0	0	0	0	0	0	0;
	4701	93.2	-41.31	98.4	-86.29	1.043063	100	1	281.85	0	0	0	0	0	0	0	0	0	0	0	0;
	4783	861.3	141.62	439.2	-173.43	1.071981	100	1	1000	333.33	0	0	0	0	0	0	0	0	0	0	0;
	4816	-26.08	10.07	38.37	-11.44	1.067305	100	1	100	-34.77	0	0	0	0	0	0	0	0	0	0	0;
	4819	855.6	150.1	440.69	-172.14	1.031907	100	1	1000	333.33	0	0	0	0	0	0	0	0	0	0	0;
	4823	10.3	1.59	4.44	-2.07	1.067114	100	1	10.46	0	0	0	0	0	0	0	0	0	0	0	0;
	4850	88.8	11.86	76.52	-23.19	1.054975	100	1	160	0	0	0	0	0	0	0	0	0	0	0	0;
	4880	-40.3	5.06	75.62	-23.96	1.034991	100	1	100	-53.73	0	0	0	0	0	0	0	0	0	0	0;
	4918	41.69	8.64	37.27	-12.57	1.057325	100	1	80	0	0	0	0	0	0	0	0	0	0	0	0;
	4952	-12.57	4.47	37.23	-12.61	1.045386	100	1	100	-16.77	0	0	0	0	0	0	0	0	0	0	0;
	5004	54.3	4.85	74.73	-70.41	1.0663	100	1	220.12	0	0	0	0	0	0	0	0	0	0	0	0;
	5019	49.4	2.95	37.72	-12.09	1.047693	100	1	80	0	0	0	0	0	0	0	0	0	0	0	0;
	5051	83.48	-1.38	74.55	-24.97	1.037373	100	1	160	0	0	0	0	0	0	0	0	0	0	0	0;
	5067	542	142.39	258.91	-109.58	1.021924	100	1	600	0	0	0	0	0	0	0	0	0	0	0	0;
	5110	-52.51	8.27	38.28	-11.5	1.032061	100	1	100	-70.01	0	0	0	0	0	0	0	0	0	0	0;
	5120	75.6	-5.04	56.35	-18.42	1.055539	100	1	120	0	0	0	0	0	0	0	0	0	0	0	0;
	5144	1713.6	139.22	882.86	-343.24	1.035201	100	1	2000	666.67	0	0	0	0	0	0	0	0	0	0	0;
	5237	106.8	10.9	75.02	-24.74	1.052719	100	1	160	0	0	0	0	0	0	0	0	0	0	0	0;
	5278	119.4	-0.06	51.3	-23.49	1.042037	100	1	120	0	0	0	0	0	0	0	0	0	0	0	0;
	5340	-159	11.05	36.37	-13.43	1.054941	100	1	100	-212	0	0	0	0	0	0	0	0	0	0	0;
	5365	19.59	1.13	18.14	-6.75	1.061754	100	1	40	0	0	0	0	0	0	0	0	0	0	0	0;
	5379	1250.6	358.22	926.47	-297.63	1.107976	100	1	2000	666.67	0	0	0	0	0	0	0	0	0	0	0;
	5395	-395.8	3.01	58.06	-16.66	1.048137	100	1	100	-527.73	0	0	0	0	0	0	0	0	0	0	0;
	5461	43.4	10.92	38.26	-11.55	1.06213	100	1	80	0	0	0	0	0	0	0	0	0	0	0	0;
	5481	1368.6	146.68	920.31	-305.64	1.063711	100	1	2000	666.67	0	0	0	0	0	0	0	0	0	0	0;
	5482	56.8	-22.21	101.32	-48.12	1.044486	100	1	249.06	0	0	0	0	0	0	0	0	0	0	0	0;
	5486	861.3	119.59	441.04	-172.05	1.059636	100	1	1000	333.33	0	0	0	0	0	0	0	0	0	0	0;
	5488	-96.4	14.63	37.49	-12.33	1.041881	100	1	100	-128.53	0	0	0	0	0	0	0	0	0	0	0;
	5490	3424.8	295.7	1765.36	-686.67	1.068845	100	1	4000	1333.33	0	0	0	0	0	0	0	0	0	0	0;
	5533	173	14.6	88.87	-35.71	1.038212	100	1	200	0	0	0	0	0	0	0	0	0	0	0	0;
	5546	21.5	1.97	19.16	-5.75	1.05378	100	1	40	0	0	0	0	0	0	0	0	0	0	0	0;
	5564	57.6	11.81	36.8	-12.99	1.04123	100	1	80	0	0	0	0	0	0	0	0	0	0	0	0;
	5658	229.8	77.84	103.18	-46.25	1.017689	100	1	240	0	0	0	0	0	0	0	0	0	0	0	0;
	5664	128	14.87	72.71	-27.05	1.070507	100	1	160	0	0	0	0	0	0	0	0	0	0	0	0;
	5709	837	75.6	550.69	-185.15	1.027078	100	1	1200	400	0	0	0	0	0	0	0	0	0	0	0;
	5781	1102.83	396.26	779.29	-324.79	1.0396	100	1	1800	600	0	0	0	0	0	0	0	0	0	0	0;
	5814	181.2	41.72	196.98	-77.17	1.044051	100	1	440	146.67	0	0	0	0	0	0	0	0	0	0	0;
	5856	305.7	19.99	214.13	-85	1.038417	100	1	480	160	0	0	0	0	0	0	0	0	0	0	0;
	5881	60	7.13	36.72	-13.13	1.065605	100	1	80	0	0	0	0	0	0	0	0	0	0	0	0;
	5940	-74.9	4.51	17.21	-7.73	1.030075	100	1	100	-99.87	0	0	0	0	0	0	0	0	0	0	0;
	5971	1221.2	370.23	934.54	-291.64	1.070056	100	1	2000	666.67	0	0	0	0	0	0	0	0	0	0	0;
	5983	-102.5	3.55	37.27	-12.59	1.066029	100	1	100	-136.67	0	0	0	0	0	0	0	0	0	0	0;
	5994	-87.3	-16.58	60.51	-61.08	1.029184	100	1	100	-116.4	0	0	0	0	0	0	0	0	0	0	0;
	6036	820.2	300.86	390.4	-161.16	1.043738	100	1	900	300	0	0	0	0	0	0	0	0	0	0	0;
	6153	94.3	-78.07	249.65	-261.82	0.988112	100	1	769.94	32.08	0	0	0	0	0	0	0	0	0	0	0;
	6168	26.3	0.4	19.86	-14.93	1.040343	100	1	53.76	0	0	0	0	0	0	0	0	0	0	0	0;
	6291	55.5	24.55	58.12	-16.6	1.040598	100	1	120	0	0	0	0	0	0	0	0	0	0	0	0;
	6331	48.8	5.01	37.76	-12.05	1.052181	100	1	80	0	0	0	0	0	0	0	0	0	0	0	0;
	6332	96	-9.58	96.56	-27.95	1.062214	100	1	200	0	0	0	0	0	0	0	0	0	0	0	0;
	6351	22.08	14.99	38.29	-11.56	1.064446	100	1	80	0	0	0	0	0	0	0	0	0	0	0	0;
	6368	-145.3	3	51.11	-23.46	1.043835	100	1	100	-193.73	0	0	0	0	0	0	0	0	0	0	0;
	6376	-27.8	-23.17	148.65	-50.73	1.046714	100	1	100	-37.07	0	0	0	0	0	0	0	0	0	0	0;
	6429	171	18.2	88.83	-35.69	1.039574	100	1	200	0	0	0	0	0	0	0	0	0	0	0	0;
	6474	718.5	-12.86	438.72	-174.15	1.06557	100	1	1000	333.33	0	0	0	0	0	0	0	0	0	0	0;
	6516	228.2	12.73	126.73	-47.83	1.052452	100	1	280	0	0	0	0	0	0	0	0	0	0	0	0;
	6552	-204.2	5.93	37.58	-12.16	1.048796	100	1	100	-272.27	0	0	0	0	0	0	0	0	0	0	0;
	6734	382.7	-77.78	311.52	-132.09	1.061492	100	1	720	0	0	0	0	0	0	0	0	0	0	0	0;
	6807	44.07	31.99	77.14	-22.46	1.006037	100	1	160	0	0	0	0	0	0	0	0	0	0	0	0;
	6816	16.53	-8.62	77.35	-22.26	1.053803	100	1	160	0	0	0	0	0	0	0	0	0	0	0	0;
	6820	15.9	-0.62	11.99	-9.06	1.049557	100	1	32.53	0	0	0	0	0	0	0	0	0	0	0	0;
	6831	-57.5	4.01	35.62	-14.25	1.031347	100	1	100	-76.67	0	0	0	0	0	0	0	0	0	0	0;
	6845	102.9	17.09	53.24	-21.47	1.055216	100	1	120	0	0	0	0	0	0	0	0	0	0	0	0;
	6852	-344.9	1.84	18.56	-6.34	1.031296	100	1	100	-459.87	0	0	0	0	0	0	0	0	0	0	0;
	6857	2463.6	391.48	1865.83	-585.95	1.021411	100	1	4000	1333.33	0	0	0	0	0	0	0	0	0	0	0;
	6888	133	6.97	189.31	-59.87	1.039234	100	1	300	88.67	0	0	0	0	0	0	0	0	0	0	0;
	6947	227.5	5.93	126.09	-48.29	1.051367	100	1	280	0	0	0	0	0	0	0	0	0	0	0	0;
...
];

%% branch data
%	fbus	tbus	r	x	b	rateA	rateB	rateC	ratio	angle	status	angmin	angmax
mpc.branch = [
	7351	5441	0.00018	0.000781	0	0	0	0	0	0	1	-360	360;
	4314	7571	0.002961	0.01669	0	319	0	0	0	0	1	-360	360;
	5803	3916	0.00056	0.00432	0	0	0	0	0	0	1	-360	360;
	6757	6036	0.0002	0.00246	0	657	0	0	0	0	1	-360	360;
	6757	6921	0.0003	0.00377	0	1315	0	0	0	0	1	-360	360;
	5019	9112	0.00014	0.00057	0	0	0	0	0	0	1	-360	360;
	2930	9112	0.00013	0.000729	0	0	0	0	0	0	1	-360	360;
	1436	9112	0.00012	0.000581	0	0	0	0	0	0	1	-360	360;
	1851	9112	0.00011	0.00064	0	0	0	0	0	0	1	-360	360;
	8331	9112	0.00019	0.00056	0	0	0	0	0	0	1	-360	360;
	6220	8791	0.00062	0.004909	0	529	0	0	0	0	1	-360	360;
	9203	7842	7e-05	0.00076	0	887	0	0	0	0	1	-360	360;
	9203	8997	0.00066	0.00622	0	1611	0	0	0	0	1	-360	360;
	9203	2129	0.00054	0.00752	0	0	0	0	0	0	1	-360	360;
	9203	29	0.00105	0.00877	0	1315	0	0	0	0	1	-360	360;
	118	8903	8e-05	0.00091	0	657	0	0	0	0	1	-360	360;
	118	4598	0.00056	0.00719	0	953	0	0	0	0	1	-360	360;
	2426	5533	0.000531	0.002039	0	319	0	0	0	0	1	-360	360;
	2426	4831	0.008659	0.03769	0	300	0	0	0	0	1	-360	360;
	2426	8961	0.003849	0.021099	0	0	0	0	0	0	1	-360	360;
	2426	8522	0.00688	0.035969	0	300	0	0	0	0	1	-360	360;
	2426	6888	0.006729	0.03713	0	0	0	0	0	0	1	-360	360;
	2426	3401	0.00111	0.006651	0	414	0	0	0	0	1	-360	360;
	2426	641	0.0023	0.008909	0	0	0	0	0	0	1	-360	360;
	2426	2600	0.000841	0.00313	0	0	0	0	0	0	1	-360	360;
	2426	5351	0.003521	0.017479	0	300	0	0	0	0	1	-360	360;
	3051	718	3.9e-05	0.00025	0	510	0	0	0	0	1	-360	360;
	3036	2327	0.000159	0.000729	0	357	0	0	0	0	1	-360	360;
	8651	7473	0.005281	0.032099	0	395	0	0	0	0	1	-360	360;
	8651	7473	0.005651	0.029419	0	376	0	0	0	0	1	-360	360;
	903	3654	0.000271	0.00036	0	0	0	0	0	0	1	-360	360;
	8732	7050	0.00044	0.00143	0	472	0	0	0	0	1	-360	360;
	8732	3912	0.000159	0.00074	0	453	0	0	0	0	1	-360	360;
	2273	1973	0.00019	0.000591	0	338	0	0	0	0	1	-360	360;
	5131	2928	0.00019	0.00087	0	0	0	0	0	0	1	-360	360;
	6629	4918	0.002591	0.013659	0	319	0	0	0	0	1	-360	360;
	6629	7309	0.00305	0.01168	0	0	0	0	0	0	1	-360	360;
	413	1102	0.000159	0.000599	0	433	0	0	0	0	1	-360	360;
	413	1102	0.000159	0.00062	0	395	0	0	0	0	1	-360	360;
	3248	4918	0.00101	0.004229	0	472	0	0	0	0	1	-360	360;
	3248	4281	0.00319	0.018651	0	453	0	0	0	0	1	-360	360;
	3248	7309	0.000729	0.00337	0	0	0	0	0	0	1	-360	360;
	1146	1187	0.002961	0.012831	0	281	0	0	0	0	1	-360	360;
	1146	7945	0.000591	0.00339	0	0	0	0	0	0	1	-360	360;
	8900	2421	0.00024	0.001219	0	0	0	0	0	0	1	-360	360;
	6071	2972	0.006219	0.036341	0	376	0	0	0	0	1	-360	360;
	6071	6031	0.001841	0.01193	0	472	0	0	0	0	1	-360	360;
	3293	7264	0.001409	0.01113	0	414	0	0	0	0	1	-360	360;
	3293	283	0.00151	0.00768	0	376	0	0	0	0	1	-360	360;
	3293	3069	0.00599	0.03313	0	395	0	0	0	0	1	-360	360;
	3293	3390	0.001771	0.010151	0	357	0	0	0	0	1	-360	360;
	4689	4936	0.00074	0.00311	0	0	0	0	0	0	1	-360	360;
	4689	4936	0.000729	0.003159	0	0	0	0	0	0	1	-360	360;
	3218	7809	0.005271	0.01906	0	281	0	0	0	0	1	-360	360;
	3218	5455	0.00906	0.053151	0	319	0	0	0	0	1	-360	360;
	3218	1857	0.00405	0.0153	0	0	0	0	0	0	1	-360	360;
	6806	5410	0.00055	0.003961	0	395	0	0	0	0	1	-360	360;
	6806	5410	0.00055	0.003729	0	338	0	0	0	0	1	-360	360;
	6806	1609	0.00107	0.007789	0	414	0	0	0	0	1	-360	360;
	6806	1609	0.00112	0.00775	0	472	0	0	0	0	1	-360	360;
	6806	1609	0.001031	0.00775	0	0	0	0	0	0	1	-360	360;
	6806	2438	0.00062	0.003219	0	0	0	0	0	0	1	-360	360;
	6806	954	0.00068	0.002659	0	414	0	0	0	0	1	-360	360;
	9140	502	0.00193	0.012479	0	491	0	0	0	0	1	-360	360;
	9140	3013	0.001159	0.007229	0	0	0	0	0	0	1	-360	360;
	9140	2949	0.00137	0.008729	0	395	0	0	0	0	1	-360	360;
	9140	2949	0.001401	0.00855	0	433	0	0	0	0	1	-360	360;
	9140	2949	0.001331	0.008521	0	433	0	0	0	0	1	-360	360;
	7070	2208	0.00031	0.00081	0	281	0	0	0	0	1	-360	360;
	7070	8060	0.000341	0.00119	0	281	0	0	0	0	1	-360	360;
	7070	4484	0.00031	0.001281	0	376	0	0	0	0	1	-360	360;
	7070	4239	0.00094	0.0035	0	433	0	0	0	0	1	-360	360;
	8535	7047	7e-05	0.000651	0	0	0	0	0	0	1	-360	360;
	5477	3657	0.00019	0.00124	0	491	0	0	0	0	1	-360	360;
	5477	2928	0.000331	0.002539	0	433	0	0	0	0	1	-360	360;
	3145	2918	0.0016	0.02113	0	0	0	0	0	0	1	-360	360;
	7770	5317	0.000909	0.004711	0	357	0	0	0	0	1	-360	360;
	7770	5317	0.00088	0.004969	0	319	0	0	0	0	1	-360	360;
	3	8676	0.001841	0.0088	0	0	0	0	0	0	1	-360	360;
	3	8189	0.01013	0.04238	0	395	0	0	0	0	1	-360	360;
	7267	2938	0.00059	0.00802	0	723	0	0	0	0	1	-360	360;
	7267	2938	0.00054	0.0079	0	657	0	0	0	0	1	-360	360;
	7267	3918	0.00171	0.02128	0	986	0	0	0	0	1	-360	360;
	7267	3918	0.00174	0.02084	0	854	0	0	0	0	1	-360	360;
	7267	6581	0.00086	0.01433	0	1151	0	0	0	0	1	-360	360;
	7267	6581	0.00087	0.01404	0	723	0	0	0	0	1	-360	360;
	7267	3830	0.00126	0.01447	0	1118	0	0	0	0	1	-360	360;
	7267	5648	0.00122	0.01509	0	1052	0	0	0	0	1	-360	360;
	7267	5648	0.00154	0.019	0	1282	0	0	0	0	1	-360	360;
	4918	4907	0.00474	0.03564	0	472	0	0	0	0	1	-360	360;
	4918	5957	0.006	0.047849	0	433	0	0	0	0	1	-360	360;
	4918	5233	0.008039	0.03375	0	281	0	0	0	0	1	-360	360;
	6854	7309	2.1e-05	0.000211	0	510	0	0	0	0	1	-360	360;
	8311	3680	0.00045	0.002341	0	0	0	0	0	0	1	-360	360;
	2770	8804	0.000669	0.004281	0	433	0	0	0	0	1	-360	360;
	9241	8804	0.00068	0.00419	0	0	0	0	0	0	1	-360	360;
	3083	7124	0.000729	0.00431	0	510	0	0	0	0	1	-360	360;
	3083	7124	0.000591	0.004651	0	453	0	0	0	0	1	-360	360;
	3083	8873	0.00099	0.005081	0	338	0	0	0	0	1	-360	360;
	1566	7582	0.00212	0.013031	0	0	0	0	0	0	1	-360	360;
	1566	3541	0.002159	0.01275	0	0	0	0	0	0	1	-360	360;
	8683	3698	0.00025	0.00095	0	0	0	0	0	0	1	-360	360;
	8683	3698	0.000271	0.00089	0	0	0	0	0	0	1	-360	360;
	8683	2801	0.001961	0.012409	0	281	0	0	0	0	1	-360	360;
	8683	8328	0.00044	0.00207	0	472	0	0	0	0	1	-360	360;
	8683	8511	0.000469	0.00143	0	529	0	0	0	0	1	-360	360;
	8683	6570	0.001271	0.01406	0	529	0	0	0	0	1	-360	360;
	8683	6570	0.00124	0.013021	0	529	0	0	0	0	1	-360	360;
	8683	8975	0.000409	0.00239	0	0	0	0	0	0	1	-360	360;
	8683	216	0.00094	0.005	0	338	0	0	0	0	1	-360	360;
	8683	2961	0.000219	0.0007	0	529	0	0	0	0	1	-360	360;
	8683	6773	6e-05	0.00025	0	0	0	0	0	0	1	-360	360;
	8683	5278	5e-05	0.000229	0	0	0	0	0	0	1	-360	360;
	3768	2751	0.00019	0.000909	0	0	0	0	0	0	1	-360	360;
	2276	5546	0.001711	0.00782	0	0	0	0	0	0	1	-360	360;
	2276	6816	0.002651	0.01176	0	319	0	0	0	0	1	-360	360;
	7766	444	0.001409	0.010599	0	0	0	0	0	0	1	-360	360;
	7766	5334	0.001419	0.010219	0	0	0	0	0	0	1	-360	360;
	839	3918	0.00013	0.00212	0	756	0	0	0	0	1	-360	360;
	839	809	0.00026	0.00313	0	1282	0	0	0	0	1	-360	360;
	4506	2286	0.0047	0.0318	0	376	0	0	0	0	1	-360	360;
	4506	6802	0.00136	0.00768	0	338	0	0	0	0	1	-360	360;
	4506	3520	0.005669	0.027789	0	300	0	0	0	0	1	-360	360;
	7273	6271	0.004409	0.033091	0	281	0	0	0	0	1	-360	360;
	7273	1435	0.01056	0.044469	0	0	0	0	0	0	1	-360	360;
	7273	7148	0.01963	0.07736	0	338	0	0	0	0	1	-360	360;
	7273	7437	0.01157	0.04694	0	357	0	0	0	0	1	-360	360;
	6104	871	0.000479	0.00255	0	357	0	0	0	0	1	-360	360;
	7580	871	0.000469	0.00236	0	0	0	0	0	0	1	-360	360;
	1188	1539	0.01237	0.067039	0	281	0	0	0	0	1	-360	360;
	1188	8515	0.0132	0.056229	0	281	0	0	0	0	1	-360	360;
	3971	4084	0.00026	0.001711	0	0	0	0	0	0	1	-360	360;
	3971	4084	0.000271	0.001669	0	0	0	0	0	0	1	-360	360;
	6845	5340	0.000211	0.000401	0	0	0	0	0	0	1	-360	360;
	8294	5814	0.00105	0.005159	0	0	0	0	0	0	1	-360	360;
	7115	6807	0.00212	0.00931	0	319	0	0	0	0	1	-360	360;
	619	6791	0.000151	0.00068	0	0	0	0	0	0	1	-360	360;
	5418	4908	0.00019	0.00082	0	0	0	0	0	0	1	-360	360;
	5120	6816	0.003219	0.01405	0	300	0	0	0	0	1	-360	360;
	6692	9158	0.007271	0.033159	0	281	0	0	0	0	1	-360	360;
	6692	8035	0.006659	0.03132	0	300	0	0	0	0	1	-360	360;
	3445	2848	0.00057	0.00668	0	1480	0	0	0	0	1	-360	360;
	3445	7056	0.00057	0.00758	0	1414	0	0	0	0	1	-360	360;
	3445	7056	0.00039	0.00607	0	821	0	0	0	0	1	-360	360;
	3445	1642	0.00155	0.0179	0	0	0	0	0	0	1	-360	360;
	3445	4594	0.00036	0.00485	0	1545	0	0	0	0	1	-360	360;
	6114	1692	0.000581	0.004229	0	338	0	0	0	0	1	-360	360;
	6114	8190	0.00056	0.00431	0	0	0	0	0	0	1	-360	360;
	6114	5836	0.003099	0.020531	0	472	0	0	0	0	1	-360	360;
	6114	3191	0.00118	0.016919	0	510	0	0	0	0	1	-360	360;
	6114	5300	0.00188	0.01407	0	0	0	0	0	0	1	-360	360;
	6114	4889	0.00545	0.04082	0	357	0	0	0	0	1	-360	360;
	7264	444	0.00214	0.01639	0	453	0	0	0	0	1	-360	360;
	7264	4747	0.002479	0.01549	0	0	0	0	0	0	1	-360	360;
	7982	9011	0.000159	0.001229	0	472	0	0	0	0	1	-360	360;
	7982	6675	0.00026	0.00162	0	453	0	0	0	0	1	-360	360;
	7982	6909	0.000159	0.00113	0	376	0	0	0	0	1	-360	360;
	7982	8835	0.000461	0.003219	0	472	0	0	0	0	1	-360	360;
	7982	4186	0.000159	0.001229	0	0	0	0	0	0	1	-360	360;
	1604	502	0.000229	0.00139	0	376	0	0	0	0	1	-360	360;
	2842	502	0.0002	0.00156	0	338	0	0	0	0	1	-360	360;
	1354	513	0.00145	0.00824	0	281	0	0	0	0	1	-360	360;
	1354	502	0.00069	0.005	0	491	0	0	0	0	1	-360	360;
	891	3697	0.00036	0.00455	0	1809	0	0	0	0	1	-360	360;
	891	3697	0.00036	0.00453	0	1776	0	0	0	0	1	-360	360;
	8312	7541	0.00066	0.00997	0	1348	0	0	0	0	1	-360	360;
	8312	7541	0.00064	0.01016	0	986	0	0	0	0	1	-360	360;
	6306	4826	9.9e-05	0.00044	0	529	0	0	0	0	1	-360	360;
	4826	4418	6e-05	0.000469	0	0	0	0	0	0	1	-360	360;
	4826	1605	3.9e-05	0.000341	0	0	0	0	0	0	1	-360	360;
	4826	6952	0.002531	0.01943	0	433	0	0	0	0	1	-360	360;
	4826	7124	0.00945	0.06418	0	414	0	0	0	0	1	-360	360;
	9128	217	0.000591	0.002831	0	357	0	0	0	0	1	-360	360;
	7014	217	0.00087	0.00387	0	0	0	0	0	0	1	-360	360;
	720	5350	0.0015	0.01785	0	1183	0	0	0	0	1	-360	360;
	720	5350	0.00147	0.0182	0	1151	0	0	0	0	1	-360	360;
	1711	639	0.00151	0.0113	0	376	0	0	0	0	1	-360	360;
	1711	639	0.001479	0.011521	0	395	0	0	0	0	1	-360	360;
	1711	9130	0.00174	0.010341	0	414	0	0	0	0	1	-360	360;
	1711	9130	0.001659	0.01206	0	453	0	0	0	0	1	-360	360;
	8209	1998	0.00069	0.000479	0	0	0	0	0	0	1	-360	360;
	8209	7974	0.00044	0.00139	0	0	0	0	0	0	1	-360	360;
	1035	8180	0.002039	0.01601	0	0	0	0	0	0	1	-360	360;
	1035	7466	0.01349	0.05662	0	357	0	0	0	0	1	-360	360;
	1035	305	0.00082	0.00438	0	300	0	0	0	0	1	-360	360;
	1035	305	0.0008	0.004461	0	281	0	0	0	0	1	-360	360;
	1035	5106	0.001091	0.00888	0	453	0	0	0	0	1	-360	360;
	1035	5106	0.00111	0.007039	0	491	0	0	0	0	1	-360	360;
	2527	8466	0.000849	0.00537	0	433	0	0	0	0	1	-360	360;
	8669	8893	0.00061	0.00275	0	357	0	0	0	0	1	-360	360;
	6206	7691	0.00141	0.0188	0	1315	0	0	0	0	1	-360	360;
	6206	6624	0.00121	0.01427	0	1545	0	0	0	0	1	-360	360;
	3240	8158	0.001711	0.007159	0	338	0	0	0	0	1	-360	360;
	3240	8795	0.00545	0.02381	0	300	0	0	0	0	1	-360	360;
	3240	4143	0.000771	0.004331	0	0	0	0	0	0	1	-360	360;
	3240	2797	0.00414	0.03282	0	453	0	0	0	0	1	-360	360;
	3240	6331	0.00264	0.011521	0	338	0	0	0	0	1	-360	360;
	3240	6384	0.00261	0.011	0	376	0	0	0	0	1	-360	360;
	3240	7523	0.00239	0.00919	0	319	0	0	0	0	1	-360	360;
	3240	2889	0.000539	0.00226	0	0	0	0	0	0	1	-360	360;
...
];

%%-----  OPF Data  -----%%
%% generator cost data
%	1	startup	shutdown	n	x1	y1	...	xn	yn
%	2	startup	shutdown	n	c(n-1)	...	c0
mpc.gencost = [
	2	0	0	3	0	1	0;
	2	0	0	3	0	1	0;
	2	0	0	3	0	1	0;
	2	0	0	3	0	1	0;
	2	0	0	3	0	1	0;
	2	0	0	3	0	1	0;
	2	0	0	3	0	1	0;
	2	0	0	3	0	1	0;
	2	0	0	3	0	1	0;
	2	0	0	3	0	1	0;
	2	0	0	3	0	1	0;
	2	0	0	3	0	1	0;
	2	0	0	3	0	1	0;
	2	0	0	3	0	1	0;
	2	0	0	3	0	1	0;
	2	0	0	3	0	1	0;
	2	0	0	3	0	1	0;
	2	0	0	3	0	1	0;
	2	0	0	3	0	1	0;
	2	0	0	3	0	1	0;
	2	0	0	3	0	1	0;
	2	0	0	3	0	1	0;
	2	0	0	3	0	1	0;
	2	0	0	3	0	1	0;
	2	0	0	3	0	1	0;
	2	0	0	3	0	1	0;
	2	0	0	3	0	1	0;
	2	0	0	3	0	1	0;
	2	0	0	3	0	1	0;
	2	0	0	3	0	1	0;
	2	0	0	3	0	1	0;
	2	0	0	3	0	1	0;
	2	0	0	3	0	1	0;
	2	0	0	3	0	1	0;
	2	0	0	3	0	1	0;
	2	0	0	3	0	1	0;
	2	0	0	3	0	1	0;
	2	0	0	3	0	1	0;
	2	0	0	3	0	1	0;
	2	0	0	3	0	1	0;
	2	0	0	3	0	1	0;
	2	0	0	3	0	1	0;
	2	0	0	3	0	1	0;
	2	0	0	3	0	1	0;
	2	0	0	3	0	1	0;
	2	0	0	3	0	1	0;
	2	0	0	3	0	1	0;
	2	0	0	3	0	1	0;
	2	0	0	3	0	1	0;
	2	0	0	3	0	1	0;
	2	0	0	3	0	1	0;
	2	0	0	3	0	1	0;
	2	0	0	3	0	1	0;
	2	0	0	3	0	1	0;
	2	0	0	3	0	1	0;
	2	0	0	3	0	1	0;
	2	0	0	3	0	1	0;
	2	0	0	3	0	1	0;
	2	0	0	3	0	1	0;
	2	0	0	3	0	1	0;
	2	0	0	3	0	1	0;
	2	0	0	3	0	1	0;
	2	0	0	3	0	1	0;
	2	0	0	3	0	1	0;
	2	0	0	3	0	1	0;
	2	0	0	3	0	1	0;
	2	0	0	3	0	1	0;
	2	0	0	3	0	1	0;
	2	0	0	3	0	1	0;
	2	0	0	3	0	1	0;
	2	0	0	3	0	1	0;
	2	0	0	3	0	1	0;
	2	0	0	3	0	1	0;
	2	0	0	3	0	1	0;
	2	0	0	3	0	1	0;
	2	0	0	3	0	1	0;
	2	0	0	3	0	1	0;
	2	0	0	3	0	1	0;
	2	0	0	3	0	1	0;
	2	0	0	3	0	1	0;
	2	0	0	3	0	1	0;
	2	0	0	3	0	1	0;
	2	0	0	3	0	1	0;
	2	0	0	3	0	1	0;
	2	0	0	3	0	1	0;
	2	0	0	3	0	1	0;
	2	0	0	3	0	1	0;
	2	0	0	3	0	1	0;
	2	0	0	3	0	1	0;
	2	0	0	3	0	1	0;
	2	0	0	3	0	1	0;
	2	0	0	3	0	1	0;
	2	0	0	3	0	1	0;
	2	0	0	3	0	1	0;
	2	0	0	3	0	1	0;
	2	0	0	3	0	1	0;
	2	0	0	3	0	1	0;
	2	0	0	3	0	1	0;
	2	0	0	3	0	1	0;
	2	0	0	3	0	1	0;
	2	0	0	3	0	1	0;
	2	0	0	3	0	1	0;
	2	0	0	3	0	1	0;
	2	0	0	3	0	1	0;
	2	0	0	3	0	1	0;
	2	0	0	3	0	1	0;
	2	0	0	3	0	1	0;
	2	0	0	3	0	1	0;
	2	0	0	3	0	1	0;
	2	0	0	3	0	1	0;
	2	0	0	3	0	1	0;
	2	0	0	3	0	1	0;
	2	0	0	3	0	1	0;
	2	0	0	3	0	1	0;
	2	0	0	3	0	1	0;
	2	0	0	3	0	1	0;
	2	0	0	3	0	1	0;
	2	0	0	3	0	1	0;
	2	0	0	3	0	1	0;
	2	0	0	3	0	1	0;
	2	0	0	3	0	1	0;
	2	0	0	3	0	1	0;
	2	0	0	3	0	1	0;
	2	0	0	3	0	1	0;
	2	0	0	3	0	1	0;
	2	0	0	3	0	1	0;
	2	0	0	3	0	1	0;
	2	0	0	3	0	1	0;
	2	0	0	3	0	1	0;
	2	0	0	3	0	1	0;
	2	0	0	3	0	1	0;
	2	0	0	3	0	1	0;
	2	0	0	3	0	1	0;
	2	0	0	3	0	1	0;
	2	0	0	3	0	1	0;
	2	0	0	3	0	1	0;
	2	0	0	3	0	1	0;
	2	0	0	3	0	1	0;
	2	0	0	3	0	1	0;
	2	0	0	3	0	1	0;
	2	0	0	3	0	1	0;
	2	0	0	3	0	1	0;
	2	0	0	3	0	1	0;
	2	0	0	3	0	1	0;
	2	0	0	3	0	1	0;
	2	0	0	3	0	1	0;
	2	0	0	3	0	1	0;
	2	0	0	3	0	1	0;
	2	0	0	3	0	1	0;
	2	0	0	3	0	1	0;
	2	0	0	3	0	1	0;
	2	0	0	3	0	1	0;
	2	0	0	3	0	1	0;
	2	0	0	3	0	1	0;
	2	0	0	3	0	1	0;
	2	0	0	3	0	1	0;
	2	0	0	3	0	1	0;
	2	0	0	3	0	1	0;
	2	0	0	3	0	1	0;
	2	0	0	3	0	1	0;
	2	0	0	3	0	1	0;
	2	0	0	3	0	1	0;
	2	0	0	3	0	1	0;
	2	0	0	3	0	1	0;
	2	0	0	3	0	1	0;
	2	0	0	3	0	1	0;
	2	0	0	3	0	1	0;
	2	0	0	3	0	1	0;
	2	0	0	3	0	1	0;
	2	0	0	3	0	1	0;
	2	0	0	3	0	1	0;
	2	0	0	3	0	1	0;
	2	0	0	3	0	1	0;
	2	0	0	3	0	1	0;
	2	0	0	3	0	1	0;
	2	0	0	3	0	1	0;
	2	0	0	3	0	1	0;
	2	0	0	3	0	1	0;
	2	0	0	3	0	1	0;
	2	0	0	3	0	1	0;
	2	0	0	3	0	1	0;
	2	0	0	3	0	1	0;
	2	0	0	3	0	1	0;
	2	0	0	3	0	1	0;
	2	0	0	3	0	1	0;
	2	0	0	3	0	1	0;
	2	0	0	3	0	1	0;
	2	0	0	3	0	1	0;
	2	0	0	3	0	1	0;
	2	0	0	3	0	1	0;
	2	0	0	3	0	1	0;
	2	0	0	3	0	1	0;
	2	0	0	3	0	1	0;
	2	0	0	3	0	1	0;
	2	0	0	3	0	1	0;
	2	0	0	3	0	1	0;
	2	0	0	3	0	1	0;
	2	0	0	3	0	1	0;
	2	0	0	3	0	1	0;
	2	0	0	3	0	1	0;
...
];
